@<TRIPOS>MOLECULE
guest
   22    22     1     0     0
SMALL
No Charge or Current Charge


@<TRIPOS>ATOM
      1 C           -0.2600     0.8920    -1.1120 C.3        1 LIG       0.121961
      2 C1          -1.2050     1.6510    -0.1900 C.3        1 LIG      -0.175913
      3 C2          -0.4400     2.5490     0.7780 C.3        1 LIG      -0.170835
      4 C3           0.6050     1.7610     1.5770 C.3        1 LIG      -0.066833
      5 C4           1.5450     0.9850     0.6450 C.3        1 LIG      -0.170835
      6 C5           0.7660     0.0910    -0.3150 C.3        1 LIG      -0.175913
      7 C6           1.3990     2.6950     2.4880 C.3        1 LIG      -0.269879
      8 O           -0.9970     0.0310    -1.9760 O.3        1 LIG      -0.550766
      9 H            0.2650     1.6080    -1.7550 H          1 LIG       0.078993
     10 H1          -1.8320     0.9470     0.3680 H          1 LIG       0.083312
     11 H2          -1.8960     2.2480    -0.7890 H          1 LIG       0.083312
     12 H3          -1.1450     3.0280     1.4680 H          1 LIG       0.083312
     13 H4           0.0470     3.3540     0.2130 H          1 LIG       0.083312
     14 H5           0.0740     1.0380     2.2080 H          1 LIG       0.082168
     15 H6           2.2330     0.3690     1.2370 H          1 LIG       0.083312
     16 H7           2.1630     1.6840     0.0660 H          1 LIG       0.083312
     17 H8           1.4550    -0.4210    -0.9970 H          1 LIG       0.083312
     18 H9           0.2590    -0.6990     0.2500 H          1 LIG       0.083312
     19 H10          1.9260     3.4620     1.9100 H          1 LIG       0.084456
     20 H11          2.1440     2.1380     3.0650 H          1 LIG       0.084456
     21 H12          0.7340     3.2010     3.1960 H          1 LIG       0.084456
     22 H13         -1.5020    -0.6040    -1.3820 H          1 LIG       0.377990
@<TRIPOS>BOND
     1     1     2 1   
     2     1     6 1   
     3     1     8 1   
     4     1     9 1   
     5     2     3 1   
     6     2    10 1   
     7     2    11 1   
     8     3     4 1   
     9     3    12 1   
    10     3    13 1   
    11     4     5 1   
    12     4     7 1   
    13     4    14 1   
    14     5     6 1   
    15     5    15 1   
    16     5    16 1   
    17     6    17 1   
    18     6    18 1   
    19     7    19 1   
    20     7    20 1   
    21     7    21 1   
    22     8    22 1   
@<TRIPOS>SUBSTRUCTURE
     1 LIG         1 TEMP              0 ****  ****    0 ROOT
