@<TRIPOS>MOLECULE
host
  158   165     1     0     0
SMALL
No Charge or Current Charge


@<TRIPOS>ATOM
      1 C           -0.4350     1.0070    -5.6080 C.3        1 HST       0.295573
      2 O           -0.8090     1.8150    -4.4950 O.3        1 HST      -0.375268
      3 C1          -0.1950    -0.4530    -5.1860 C.3        1 HST       0.098678
      4 C2           1.0850    -0.6170    -4.3680 C.3        1 HST       0.103756
      5 C3           2.2900     0.0840    -5.0150 C.3        1 HST       0.100249
      6 C4           1.8750     1.5370    -5.3450 C.3        1 HST       0.102728
      7 O1           0.7350     1.5590    -6.2210 O.3        1 HST      -0.375268
      8 O2          -1.3120    -0.9820    -4.4520 O.3        1 HST      -0.553161
      9 O3           1.3340    -2.0260    -4.2070 O.3        1 HST      -0.553161
     10 C5           3.0190     2.3130    -6.0140 C.3        1 HST       0.012269
     11 O4           4.0150     2.7210    -5.0810 O.3        1 HST      -0.549845
     12 H           -1.2220     1.0130    -6.3710 H          1 HST       0.074392
     13 H1          -0.1020    -1.0660    -6.0910 H          1 HST       0.077567
     14 H2           0.9660    -0.2290    -3.3560 H          1 HST       0.077567
     15 H3           2.5830    -0.4420    -5.9310 H          1 HST       0.077567
     16 H4           1.6360     2.0670    -4.4140 H          1 HST       0.077567
     17 H5          -1.2230    -0.6530    -3.5190 H          1 HST       0.375743
     18 H6           0.5410    -2.3750    -3.7400 H          1 HST       0.375743
     19 H7           2.6310     3.2170    -6.4950 H          1 HST       0.078711
     20 H8           3.4950     1.7170    -6.8000 H          1 HST       0.078711
     21 H9           4.1760     1.9830    -4.4610 H          1 HST       0.375743
     22 C6          -4.3310     3.6490    -3.2020 C.3        1 HST       0.295573
     23 O5          -3.9620     3.3140    -1.8700 O.3        1 HST      -0.375268
     24 C7          -4.5250     2.3920    -4.0600 C.3        1 HST       0.098678
     25 C8          -3.2250     1.5930    -4.1390 C.3        1 HST       0.103756
     26 C9          -2.0740     2.4840    -4.6370 C.3        1 HST       0.100249
     27 C10         -2.0150     3.7840    -3.8090 C.3        1 HST       0.102728
     28 O6          -3.2910     4.4640    -3.7560 O.3        1 HST      -0.375268
     29 O7          -5.5690     1.5510    -3.5440 O.3        1 HST      -0.553161
     30 O8          -3.4650     0.4990    -5.0450 O.3        1 HST      -0.553161
     31 C11         -0.9620     4.7650    -4.3560 C.3        1 HST       0.012269
     32 O9          -1.1090     4.9870    -5.7600 O.3        1 HST      -0.549845
     33 H10         -5.2550     4.2370    -3.2200 H          1 HST       0.074392
     34 H11         -4.8300     2.6860    -5.0730 H          1 HST       0.077567
     35 H12         -2.9970     1.1460    -3.1660 H          1 HST       0.077567
     36 H13         -2.2530     2.7330    -5.6910 H          1 HST       0.077567
     37 H14         -1.7050     3.5550    -2.7820 H          1 HST       0.077567
     38 H15         -5.4610     0.7020    -4.0240 H          1 HST       0.375743
     39 H16         -2.8370    -0.2160    -4.7870 H          1 HST       0.375743
     40 H17          0.0530     4.3970    -4.1720 H          1 HST       0.078711
     41 H18         -1.0650     5.7390    -3.8670 H          1 HST       0.078711
     42 H19         -0.5580     4.3210    -6.2090 H          1 HST       0.375743
     43 C12         -5.0750     3.4580     2.0640 C.3        1 HST       0.295573
     44 O10         -3.9010     2.6740     2.2970 O.3        1 HST      -0.375268
     45 C13         -6.1210     2.7960     1.1560 C.3        1 HST       0.098678
     46 C14         -5.5160     2.5110    -0.2240 C.3        1 HST       0.103756
     47 C15         -4.8300     3.7610    -0.8190 C.3        1 HST       0.100249
     48 C16         -3.9780     4.5130     0.2310 C.3        1 HST       0.102728
     49 O11         -4.6720     4.6980     1.4740 O.3        1 HST      -0.375268
     50 O12         -6.6800     1.6300     1.7700 O.3        1 HST      -0.553161
     51 O13         -6.5740     2.1070    -1.1110 O.3        1 HST      -0.553161
     52 C17         -3.5590     5.9120    -0.2580 C.3        1 HST       0.012269
     53 O14         -2.5720     5.8800    -1.2790 O.3        1 HST      -0.549845
     54 H20         -5.5350     3.7140     3.0250 H          1 HST       0.074392
     55 H21         -6.9600     3.4910     1.0230 H          1 HST       0.077567
     56 H22         -4.8170     1.6680    -0.1720 H          1 HST       0.077567
     57 H23         -5.6060     4.4370    -1.2010 H          1 HST       0.077567
     58 H24         -3.0540     3.9550     0.4130 H          1 HST       0.077567
     59 H25         -6.0300     0.8970     1.6520 H          1 HST       0.375743
     60 H26         -6.1510     1.7630    -1.9290 H          1 HST       0.375743
     61 H27         -3.1400     6.4820     0.5790 H          1 HST       0.078711
     62 H28         -4.4240     6.4810    -0.6150 H          1 HST       0.078711
     63 H29         -2.9740     5.4720    -2.0690 H          1 HST       0.375743
     64 C18         -2.6530    -0.1240     5.1610 C.3        1 HST       0.295573
     65 O15         -1.3390    -0.1230     4.6000 O.3        1 HST      -0.375268
     66 C19         -3.6750    -0.6280     4.1200 C.3        1 HST       0.098678
     67 C20         -3.6920     0.3290     2.9140 C.3        1 HST       0.103756
     68 C21         -3.9880     1.7630     3.4010 C.3        1 HST       0.100249
     69 C22         -2.9440     2.1400     4.4770 C.3        1 HST       0.102728
     70 O16         -2.9870     1.2080     5.5720 O.3        1 HST      -0.375268
     71 O17         -4.7050    -0.0720     1.9760 O.3        1 HST      -0.553161
     72 O18         -3.3670    -1.9840     3.7680 O.3        1 HST      -0.553161
     73 C23         -3.1700     3.5520     5.0360 C.3        1 HST       0.012269
     74 O19         -2.7030     4.5660     4.1510 O.3        1 HST      -0.549845
     75 H30         -2.6990    -0.7650     6.0480 H          1 HST       0.074392
     76 H31         -4.6770    -0.6450     4.5660 H          1 HST       0.077567
     77 H32         -2.7410     0.3000     2.3710 H          1 HST       0.077567
     78 H33         -4.9940     1.7750     3.8410 H          1 HST       0.077567
     79 H34         -1.9430     2.1390     4.0260 H          1 HST       0.077567
     80 H35         -4.3270    -0.8700     1.5140 H          1 HST       0.375743
     81 H36         -3.4950    -2.0820     2.7840 H          1 HST       0.375743
     82 H37         -2.6300     3.6720     5.9820 H          1 HST       0.078711
     83 H38         -4.2280     3.7290     5.2530 H          1 HST       0.078711
     84 H39         -3.0350     4.3650     3.2550 H          1 HST       0.375743
     85 C24          2.1940    -2.2450     4.6670 C.3        1 HST       0.295573
     86 O20          2.3730    -1.8640     3.2990 O.3        1 HST      -0.375268
     87 C25          0.9480    -3.1000     4.9090 C.3        1 HST       0.098678
     88 C26         -0.3140    -2.3240     4.5460 C.3        1 HST       0.103756
     89 C27         -0.3680    -0.9600     5.2500 C.3        1 HST       0.100249
     90 C28          0.9910    -0.2340     5.1190 C.3        1 HST       0.102728
     91 O21          2.1210    -1.0590     5.4570 O.3        1 HST      -0.375268
     92 O22         -1.4110    -3.1700     4.9340 O.3        1 HST      -0.553161
     93 O23          0.9650    -4.3330     4.1650 O.3        1 HST      -0.553161
     94 C29          1.0330     1.0250     6.0000 C.3        1 HST       0.012269
     95 O24          0.7620     0.7030     7.3630 O.3        1 HST      -0.549845
     96 H40          3.0780    -2.7920     5.0150 H          1 HST       0.074392
     97 H41          0.9070    -3.3760     5.9710 H          1 HST       0.077567
     98 H42         -0.3910    -2.2000     3.4590 H          1 HST       0.077567
     99 H43         -0.6220    -1.1050     6.3070 H          1 HST       0.077567
    100 H44          1.1250     0.1080     4.0870 H          1 HST       0.077567
    101 H45         -2.2100    -2.8140     4.4760 H          1 HST       0.375743
    102 H46          0.0960    -4.7370     4.3860 H          1 HST       0.375743
    103 H47          0.2930     1.7600     5.6690 H          1 HST       0.078711
    104 H48          2.0290     1.4790     5.9590 H          1 HST       0.078711
    105 H49          0.8650     1.5260     7.8710 H          1 HST       0.375743
    106 C30          4.7320    -3.2570     0.1130 C.3        1 HST       0.295573
    107 O25          4.5260    -2.0240    -0.5750 O.3        1 HST      -0.375268
    108 C31          3.3890    -3.9940     0.3420 C.3        1 HST       0.100266
    109 C32          2.4630    -3.0980     1.1990 C.3        1 HST       0.043298
    110 C33          3.1860    -2.7590     2.5300 C.3        1 HST       0.101837
    111 C34          4.5450    -2.0960     2.1910 C.3        1 HST       0.102728
    112 O26          5.3450    -2.9750     1.3790 O.3        1 HST      -0.375268
    113 N            1.1420    -3.6980     1.4370 N.am       1 HST      -0.547919
    114 C35          0.1590    -3.7230     0.4710 C.2        1 HST       0.510003
    115 O27          0.4030    -3.3990    -0.6900 O.2        1 HST      -0.532294
    116 C36         -1.1730    -4.2710     0.9470 C.3        1 HST      -0.178874
    117 C37         -2.3280    -3.9200     0.0190 C.3        1 HST      -0.182094
    118 C38         -2.6970    -2.4640     0.2330 C.2        1 HST       0.632144
    119 O28         -2.2860    -1.6400    -0.6250 O.co2      1 HST      -0.649331
    120 O29         -3.3880    -2.2160     1.2650 O.co2      1 HST      -0.649331
    121 O30          2.8220    -4.3800    -0.9170 O.3        1 HST      -0.553161
    122 C39          5.3600    -1.7240     3.4380 C.3        1 HST       0.012269
    123 O31          4.9180    -0.5060     4.0280 O.3        1 HST      -0.549845
    124 H50          5.4180    -3.9060    -0.4410 H          1 HST       0.074392
    125 H51          3.5820    -4.9230     0.8920 H          1 HST       0.077567
    126 H52          2.2530    -2.1700     0.6560 H          1 HST       0.078434
    127 H53          3.3600    -3.7000     3.0690 H          1 HST       0.077567
    128 H54          4.3620    -1.1580     1.6520 H          1 HST       0.077567
    129 H55          0.9500    -4.0900     2.3580 H          1 HST       0.318996
    130 H56         -1.3660    -3.9170     1.9660 H          1 HST       0.081673
    131 H57         -1.0670    -5.3610     0.9940 H          1 HST       0.081673
    132 H58         -3.1990    -4.5400     0.2580 H          1 HST       0.081673
    133 H59         -2.0760    -4.1010    -1.0320 H          1 HST       0.081673
    134 H60          1.9290    -3.9680    -0.9830 H          1 HST       0.375743
    135 H61          6.4130    -1.5860     3.1690 H          1 HST       0.078711
    136 H62          5.3320    -2.5200     4.1900 H          1 HST       0.078711
    137 H63          3.9650    -0.5790     4.2260 H          1 HST       0.375743
    138 C40          4.5720    -0.5550    -4.4130 C.3        1 HST       0.295573
    139 O32          3.3550     0.1070    -4.0540 O.3        1 HST      -0.375268
    140 C41          4.5460    -2.0910    -4.3610 C.3        1 HST       0.098678
    141 C42          4.2370    -2.5750    -2.9390 C.3        1 HST       0.103756
    142 C43          5.1260    -1.9050    -1.8780 C.3        1 HST       0.100249
    143 C44          5.2730    -0.3910    -2.1430 C.3        1 HST       0.102728
    144 O33          5.5880    -0.0910    -3.5150 O.3        1 HST      -0.375268
    145 O34          4.4430    -3.9990    -2.9000 O.3        1 HST      -0.553161
    146 O35          3.6350    -2.6370    -5.3240 O.3        1 HST      -0.553161
    147 C45          6.3390     0.2500    -1.2350 C.3        1 HST       0.012269
    148 O36          7.5870    -0.4420    -1.2810 O.3        1 HST      -0.549845
    149 H64          4.8590    -0.2260    -5.4190 H          1 HST       0.074392
    150 H65          5.5380    -2.4670    -4.6420 H          1 HST       0.077567
    151 H66          3.1840    -2.4030    -2.6950 H          1 HST       0.077567
    152 H67          6.1120    -2.3860    -1.8800 H          1 HST       0.077567
    153 H68          4.3330     0.1180    -1.8880 H          1 HST       0.077567
    154 H69          3.7520    -4.3590    -2.3010 H          1 HST       0.375743
    155 H70          2.7550    -2.6840    -4.8870 H          1 HST       0.375743
    156 H71          6.0030     0.2770    -0.1930 H          1 HST       0.078711
    157 H72          6.5320     1.2780    -1.5570 H          1 HST       0.078711
    158 H73          7.5680    -1.1160    -0.5790 H          1 HST       0.375743
@<TRIPOS>BOND
     1     1     2 1   
     2     1     3 1   
     3     1     7 1   
     4     1    12 1   
     5     2    26 1   
     6     3     4 1   
     7     3     8 1   
     8     3    13 1   
     9     4     5 1   
    10     4     9 1   
    11     4    14 1   
    12     5     6 1   
    13     5    15 1   
    14     5   139 1   
    15     6     7 1   
    16     6    10 1   
    17     6    16 1   
    18     8    17 1   
    19     9    18 1   
    20    10    11 1   
    21    10    19 1   
    22    10    20 1   
    23    11    21 1   
    24    22    23 1   
    25    22    24 1   
    26    22    28 1   
    27    22    33 1   
    28    23    47 1   
    29    24    25 1   
    30    24    29 1   
    31    24    34 1   
    32    25    26 1   
    33    25    30 1   
    34    25    35 1   
    35    26    27 1   
    36    26    36 1   
    37    27    28 1   
    38    27    31 1   
    39    27    37 1   
    40    29    38 1   
    41    30    39 1   
    42    31    32 1   
    43    31    40 1   
    44    31    41 1   
    45    32    42 1   
    46    43    44 1   
    47    43    45 1   
    48    43    49 1   
    49    43    54 1   
    50    44    68 1   
    51    45    46 1   
    52    45    50 1   
    53    45    55 1   
    54    46    47 1   
    55    46    51 1   
    56    46    56 1   
    57    47    48 1   
    58    47    57 1   
    59    48    49 1   
    60    48    52 1   
    61    48    58 1   
    62    50    59 1   
    63    51    60 1   
    64    52    53 1   
    65    52    61 1   
    66    52    62 1   
    67    53    63 1   
    68    64    65 1   
    69    64    66 1   
    70    64    70 1   
    71    64    75 1   
    72    65    89 1   
    73    66    67 1   
    74    66    72 1   
    75    66    76 1   
    76    67    68 1   
    77    67    71 1   
    78    67    77 1   
    79    68    69 1   
    80    68    78 1   
    81    69    70 1   
    82    69    73 1   
    83    69    79 1   
    84    71    80 1   
    85    72    81 1   
    86    73    74 1   
    87    73    82 1   
    88    73    83 1   
    89    74    84 1   
    90    85    86 1   
    91    85    87 1   
    92    85    91 1   
    93    85    96 1   
    94    86   110 1   
    95    87    88 1   
    96    87    93 1   
    97    87    97 1   
    98    88    89 1   
    99    88    92 1   
   100    88    98 1   
   101    89    90 1   
   102    89    99 1   
   103    90    91 1   
   104    90    94 1   
   105    90   100 1   
   106    92   101 1   
   107    93   102 1   
   108    94    95 1   
   109    94   103 1   
   110    94   104 1   
   111    95   105 1   
   112   106   107 1   
   113   106   108 1   
   114   106   112 1   
   115   106   124 1   
   116   107   142 1   
   117   108   109 1   
   118   108   121 1   
   119   108   125 1   
   120   109   110 1   
   121   109   113 1   
   122   109   126 1   
   123   110   111 1   
   124   110   127 1   
   125   111   112 1   
   126   111   122 1   
   127   111   128 1   
   128   113   114 am  
   129   113   129 1   
   130   114   115 2   
   131   114   116 1   
   132   116   117 1   
   133   116   130 1   
   134   116   131 1   
   135   117   118 1   
   136   117   132 1   
   137   117   133 1   
   138   118   119 1   
   139   118   120 1   
   140   121   134 1   
   141   122   123 1   
   142   122   135 1   
   143   122   136 1   
   144   123   137 1   
   145   138   139 1   
   146   138   140 1   
   147   138   144 1   
   148   138   149 1   
   149   140   141 1   
   150   140   146 1   
   151   140   150 1   
   152   141   142 1   
   153   141   145 1   
   154   141   151 1   
   155   142   143 1   
   156   142   152 1   
   157   143   144 1   
   158   143   147 1   
   159   143   153 1   
   160   145   154 1   
   161   146   155 1   
   162   147   148 1   
   163   147   156 1   
   164   147   157 1   
   165   148   158 1   
@<TRIPOS>SUBSTRUCTURE
     1 HST         1 TEMP              0 ****  ****    0 ROOT
